ipss.dml/testdata/psse/IEEE39Bus/IEEE39bus_v30.seq
 0,  30           / PSS(R)E 30 SEQ created by RWSQVERSION  FRI, JUN 21 2013  16:16
     30,'1 ', 0.00000E+00, 2.24000E-01
     31,'1 ', 0.00000E+00, 2.02900E-01
     32,'1 ', 0.00000E+00, 2.80500E-01
     33,'1 ', 0.00000E+00, 2.33000E-01
     34,'1 ', 0.00000E+00, 2.02900E-01
     35,'1 ', 0.00000E+00, 3.14000E-01
     36,'1 ', 0.00000E+00, 2.15000E-01
     37,'1 ', 0.00000E+00, 2.15000E-01
     38,'1 ', 0.00000E+00, 2.46000E-01
     39,'1 ', 0.00000E+00, 5.00000E-03
 0 /End of Positive sequence Generator data, Begin Negative sequence Generator data
     30,'1 ', 0.00000E+00, 2.24000E-01
     31,'1 ', 0.00000E+00, 2.02900E-01
     32,'1 ', 0.00000E+00, 2.80500E-01
     33,'1 ', 0.00000E+00, 2.33000E-01
     34,'1 ', 0.00000E+00, 2.02900E-01
     35,'1 ', 0.00000E+00, 3.14000E-01
     36,'1 ', 0.00000E+00, 2.15000E-01
     37,'1 ', 0.00000E+00, 2.15000E-01
     38,'1 ', 0.00000E+00, 2.46000E-01
     39,'1 ', 0.00000E+00, 5.00000E-03
 0 /End of Negative sequence Generator data, Begin Zero sequence Generator data
     30,'1 ', 0.00000E+00, 2.24000E-01
     31,'1 ', 0.00000E+00, 2.02900E-01
     32,'1 ', 0.00000E+00, 2.80500E-01
     33,'1 ', 0.00000E+00, 2.33000E-01
     34,'1 ', 0.00000E+00, 2.02900E-01
     35,'1 ', 0.00000E+00, 3.14000E-01
     36,'1 ', 0.00000E+00, 2.15000E-01
     37,'1 ', 0.00000E+00, 2.15000E-01
     38,'1 ', 0.00000E+00, 2.46000E-01
     39,'1 ', 0.00000E+00, 5.00000E-03
 0 /End of Zero sequence Generator data, Begin Negative sequence Load data
 0 /End of Negative sequence Load data, Begin Zero sequence Load data
 0 /End of Zero sequence Load data, Begin Zero sequence Branch data
      1,     2,'1 ', 8.75000E-3, 1.02750E-1,    0.69870, 0.00000E+0, 0.00000E+0, 0.00000E+0, 0.00000E+0
      1,    39,'1 ', 2.50000E-3, 6.25000E-2,    0.75000, 0.00000E+0, 0.00000E+0, 0.00000E+0, 0.00000E+0
      2,     3,'1 ', 3.25000E-3, 3.77500E-2,    0.25720, 0.00000E+0, 0.00000E+0, 0.00000E+0, 0.00000E+0
      2,    25,'1 ', 1.75000E-2, 2.15000E-2,    0.14600, 0.00000E+0, 0.00000E+0, 0.00000E+0, 0.00000E+0
      3,     4,'1 ', 3.25000E-3, 5.32500E-2,    0.22140, 0.00000E+0, 0.00000E+0, 0.00000E+0, 0.00000E+0
      3,    18,'1 ', 2.75000E-3, 3.32500E-2,    0.21380, 0.00000E+0, 0.00000E+0, 0.00000E+0, 0.00000E+0
      4,     5,'1 ', 2.00000E-3, 3.20000E-2,    0.13420, 0.00000E+0, 0.00000E+0, 0.00000E+0, 0.00000E+0
      4,    14,'1 ', 2.00000E-3, 3.22500E-2,    0.13820, 0.00000E+0, 0.00000E+0, 0.00000E+0, 0.00000E+0
      5,     6,'1 ', 5.00000E-4, 6.50000E-3,    0.04340, 0.00000E+0, 0.00000E+0, 0.00000E+0, 0.00000E+0
      5,     8,'1 ', 2.00000E-3, 2.80000E-2,    0.14760, 0.00000E+0, 0.00000E+0, 0.00000E+0, 0.00000E+0
      6,     7,'1 ', 1.50000E-3, 2.30000E-2,    0.11300, 0.00000E+0, 0.00000E+0, 0.00000E+0, 0.00000E+0
      6,    11,'1 ', 1.75000E-3, 2.05000E-2,    0.13890, 0.00000E+0, 0.00000E+0, 0.00000E+0, 0.00000E+0
      7,     8,'1 ', 1.00000E-3, 1.15000E-2,    0.07800, 0.00000E+0, 0.00000E+0, 0.00000E+0, 0.00000E+0
      8,     9,'1 ', 5.75000E-3, 9.07500E-2,    0.38040, 0.00000E+0, 0.00000E+0, 0.00000E+0, 0.00000E+0
      9,    39,'1 ', 2.50000E-3, 6.25000E-2,    1.20000, 0.00000E+0, 0.00000E+0, 0.00000E+0, 0.00000E+0
     10,    11,'1 ', 1.00000E-3, 1.07500E-2,    0.07290, 0.00000E+0, 0.00000E+0, 0.00000E+0, 0.00000E+0
     10,    13,'1 ', 1.00000E-3, 1.07500E-2,    0.07290, 0.00000E+0, 0.00000E+0, 0.00000E+0, 0.00000E+0
     13,    14,'1 ', 2.25000E-3, 2.52500E-2,    0.17230, 0.00000E+0, 0.00000E+0, 0.00000E+0, 0.00000E+0
     14,    15,'1 ', 4.50000E-3, 5.42500E-2,    0.36600, 0.00000E+0, 0.00000E+0, 0.00000E+0, 0.00000E+0
     15,    16,'1 ', 2.25000E-3, 2.35000E-2,    0.17100, 0.00000E+0, 0.00000E+0, 0.00000E+0, 0.00000E+0
     16,    17,'1 ', 1.75000E-3, 2.22500E-2,    0.13420, 0.00000E+0, 0.00000E+0, 0.00000E+0, 0.00000E+0
     16,    19,'1 ', 4.00000E-3, 4.87500E-2,    0.30400, 0.00000E+0, 0.00000E+0, 0.00000E+0, 0.00000E+0
     16,    21,'1 ', 2.00000E-3, 3.37500E-2,    0.25480, 0.00000E+0, 0.00000E+0, 0.00000E+0, 0.00000E+0
     16,    24,'1 ', 7.50000E-4, 1.47500E-2,    0.06800, 0.00000E+0, 0.00000E+0, 0.00000E+0, 0.00000E+0
     17,    18,'1 ', 1.75000E-3, 2.05000E-2,    0.13190, 0.00000E+0, 0.00000E+0, 0.00000E+0, 0.00000E+0
     17,    27,'1 ', 3.25000E-3, 4.32500E-2,    0.32160, 0.00000E+0, 0.00000E+0, 0.00000E+0, 0.00000E+0
     21,    22,'1 ', 2.00000E-3, 3.50000E-2,    0.25650, 0.00000E+0, 0.00000E+0, 0.00000E+0, 0.00000E+0
     22,    23,'1 ', 1.50000E-3, 2.40000E-2,    0.18460, 0.00000E+0, 0.00000E+0, 0.00000E+0, 0.00000E+0
     23,    24,'1 ', 5.50000E-3, 8.75000E-2,    0.36100, 0.00000E+0, 0.00000E+0, 0.00000E+0, 0.00000E+0
     25,    26,'1 ', 8.00000E-3, 8.07500E-2,    0.51300, 0.00000E+0, 0.00000E+0, 0.00000E+0, 0.00000E+0
     26,    27,'1 ', 3.50000E-3, 3.67500E-2,    0.23960, 0.00000E+0, 0.00000E+0, 0.00000E+0, 0.00000E+0
     26,    28,'1 ', 1.07500E-2, 1.18500E-1,    0.78020, 0.00000E+0, 0.00000E+0, 0.00000E+0, 0.00000E+0
     26,    29,'1 ', 1.42500E-2, 1.56250E-1,    1.02900, 0.00000E+0, 0.00000E+0, 0.00000E+0, 0.00000E+0
     28,    29,'1 ', 3.50000E-3, 3.77500E-2,    0.24900, 0.00000E+0, 0.00000E+0, 0.00000E+0, 0.00000E+0
 0 /End of Zero sequence Branch data, Begin Zero sequence Mutual data
 0 /End of Zero sequence Mutual data, Begin Zero sequence Transformer data
      2,    30,     0,'1 ',  2, 0.00000E+0, 0.00000E+0, 0.00000E+0, 1.81000E-2
      6,    31,     0,'1 ',  2, 0.00000E+0, 0.00000E+0, 0.00000E+0, 2.50000E-2
     10,    32,     0,'1 ',  2, 0.00000E+0, 0.00000E+0, 0.00000E+0, 2.00000E-2
     12,    11,     0,'1 ',  4, 0.00000E+0, 0.00000E+0, 1.60000E-3, 4.35000E-2
     12,    13,     0,'1 ',  4, 0.00000E+0, 0.00000E+0, 1.60000E-3, 4.35000E-2
     19,    20,     0,'1 ',  4, 0.00000E+0, 0.00000E+0, 7.00000E-4, 1.38000E-2
     19,    33,     0,'1 ',  2, 0.00000E+0, 0.00000E+0, 7.00000E-4, 1.42000E-2
     20,    34,     0,'1 ',  2, 0.00000E+0, 0.00000E+0, 9.00000E-4, 1.80000E-2
     22,    35,     0,'1 ',  2, 0.00000E+0, 0.00000E+0, 0.00000E+0, 1.43000E-2
     23,    36,     0,'1 ',  2, 0.00000E+0, 0.00000E+0, 5.00000E-4, 2.72000E-2
     25,    37,     0,'1 ',  2, 0.00000E+0, 0.00000E+0, 6.00000E-4, 2.32000E-2
     29,    38,     0,'1 ',  2, 0.00000E+0, 0.00000E+0, 8.00000E-4, 1.56000E-2
 0 /End of Zero sequence Transformer data, Begin Zero sequence Switched shunt data
 0  / END OF ZERO SEQ. SWITCHED SHUNT DATA, BEGIN ZERO SEQ. FIXED SHUNT DATA
 0  / END OF ZERO SEQ. FIXED SHUNT DATA